material1

loop_
_symmetry_equiv_pos_as_xyz
  x,y,z
_cell_length_a          23.0358
_cell_length_b          29.2934
_cell_length_c          18.9674
_cell_angle_alpha       90.0000
_cell_angle_beta        90.0000
_cell_angle_gamma       90.0000
loop_
_atom_site_label
_atom_site_type_symbol
_atom_site_fract_x
_atom_site_fract_y
_atom_site_fract_z
_atom_site_charge
#NET CHARGE: -1.42108547152e-13
A_1     C     0.1736     0.239     0.0    49.8624
A_1     C     0.0434     0.8534     0.0    49.8624
A_2     C     0.5209     0.1707     0.2109    47.6532
A_1     C     0.9984     0.3414     0.2636    49.8624
A_0     C     0.0434     0.5121     0.4745    -42.1682
A_3     C     0.6512     0.0341     0.1054    -54.5856
A_2     C     0.955     0.1024     0.7381    47.6532
A_0     C     0.3473     0.3072     0.2636    -42.1682
A_0     C     0.4341     0.3072     0.5799    -42.1682
A_0     C     0.4341     0.0341     0.1582    -42.1682
A_0     C     0.6077     0.6486     0.0    -42.1682
A_1     C     0.1736     0.3755     0.3691    49.8624
A_1     C     0.6512     0.2731     0.7381    49.8624
A_2     C     0.9984     0.3755     0.6327    47.6532
A_1     C     0.9984     0.6827     0.8963    49.8624
A_3     C     0.9116     0.239     0.1054    -54.5856
A_2     C     0.6946     0.4438     0.6327    47.6532
A_2     C     0.6946     0.239     0.1582    47.6532
A_1     C     0.7814     0.8534     0.1582    49.8624
A_2     C     0.738     0.3414     0.8963    47.6532
A_3     C     0.9116     0.2048     0.5799    -54.5856
A_0     C     0.1302     0.2048     0.6854    -42.1682
A_3     C     0.6077     0.0     0.2636    -54.5856
A_0     C     0.955     0.2048     0.5272    -42.1682
A_2     C     0.5643     0.751     0.5272    47.6532
A_3     C     0.3039     0.9217     0.8436    -54.5856
A_3     C     0.2605     0.3072     0.2109    -54.5856
A_1     C     0.4775     0.0     0.4218    49.8624
A_3     C     0.0434     0.751     0.6327    -54.5856
A_3     C     0.2171     0.1707     0.5799    -54.5856
A_2     C     0.0434     0.5803     0.3163    47.6532
A_2     C     0.6946     0.8876     0.7381    47.6532
A_0     C     0.8248     0.1365     0.1582    -42.1682
A_0     C     0.2605     0.6486     0.8963    -42.1682
A_3     C     0.2171     0.5462     0.3691    -54.5856
A_2     C     0.3907     0.8534     0.0527    47.6532
A_2     C     0.5643     0.8193     0.949    47.6532
A_2     C     0.5209     0.5462     0.0527    47.6532
A_0     C     0.8248     0.7852     0.8963    -42.1682
A_2     C     0.0868     0.2048     0.1054    47.6532
A_1     C     0.738     0.2731     0.5799    49.8624
A_0     C     0.8248     0.9558     0.1054    -42.1682
A_3     C     0.955     0.5121     0.6854    -54.5856
A_3     C     0.9116     0.239     0.7381    -54.5856
A_3     C     0.7814     0.1365     0.2636    -54.5856
A_1     C     0.9984     0.0341     0.3691    49.8624
A_2     C     0.1302     0.4438     0.2109    47.6532
A_0     C     0.3039     0.4438     0.3691    -42.1682
A_1     C     0.0434     0.4438     0.8963    49.8624
A_3     C     0.9984     0.8876     0.1054    -54.5856
