material2

loop_
_symmetry_equiv_pos_as_xyz
  x,y,z
_cell_length_a          45.5937
_cell_length_b          22.4534
_cell_length_c          40.8627
_cell_angle_alpha       90.0000
_cell_angle_beta        90.0000
_cell_angle_gamma       90.0000
loop_
_atom_site_label
_atom_site_type_symbol
_atom_site_fract_x
_atom_site_fract_y
_atom_site_fract_z
_atom_site_charge
#NET CHARGE: -1.27897692437e-13
A_1     C     0.965     0.2672     0.5873    175.032
A_3     C     0.7019     0.4899     0.6363    -21.5529
A_2     C     0.1755     0.7571     0.3916    78.021
A_3     C     0.0439     0.7126     0.7342    -21.5529
A_2     C     0.4825     0.8462     0.2692    78.021
A_3     C     0.4606     0.3118     0.2447    -21.5529
A_3     C     0.1535     0.9353     0.8565    -21.5529
A_2     C     0.1974     0.579     0.1958    78.021
A_2     C     0.1316     0.8017     0.9544    78.021
A_0     C     0.5483     0.1336     0.9299    -229.6032
A_1     C     0.7676     0.8907     0.2937    175.032
A_2     C     0.2851     0.8017     0.7831    78.021
A_2     C     0.8773     0.5344     0.4894    78.021
A_3     C     0.3729     0.1781     0.0734    -21.5529
A_0     C     0.1316     0.7571     0.1713    -229.6032
A_0     C     0.9431     0.2227     0.1713    -229.6032
A_1     C     0.8115     0.0     0.881    175.032
A_1     C     0.5483     0.3563     0.1224    175.032
A_0     C     0.6361     0.0     0.881    -229.6032
A_2     C     0.6799     0.2672     0.0979    78.021
A_0     C     0.1974     0.1781     0.0489    -229.6032
A_1     C     0.8334     0.579     0.4405    175.032
A_2     C     0.3729     0.1336     0.881    78.021
A_3     C     0.4167     0.7126     0.6607    -21.5529
A_0     C     0.0     0.4899     0.8321    -229.6032
A_3     C     0.7676     0.6681     0.5629    -21.5529
A_0     C     0.3509     0.0     0.1713    -229.6032
A_2     C     0.8773     0.1336     0.416    78.021
A_3     C     0.7457     0.3563     0.9055    -21.5529
A_2     C     0.3071     0.9798     0.8565    78.021
A_1     C     0.8773     0.7571     0.881    175.032
A_0     C     0.9212     0.0     0.416    -229.6032
A_0     C     0.6361     0.9798     0.9544    -229.6032
A_0     C     0.965     0.2672     0.2692    -229.6032
A_3     C     0.0658     0.7571     0.8076    -21.5529
A_2     C     0.0877     0.4008     0.3671    78.021
A_2     C     0.2193     0.4454     0.6852    78.021
A_1     C     0.7896     0.4454     0.6607    175.032
A_1     C     0.0658     0.0445     0.7342    175.032
A_2     C     0.8334     0.8462     0.5139    78.021
A_3     C     0.8992     0.4008     0.0979    -21.5529
A_1     C     0.7457     0.7571     0.9789    175.032
A_0     C     0.9431     0.3563     0.2937    -229.6032
A_3     C     0.8334     0.1781     0.416    -21.5529
A_1     C     0.5703     0.579     0.1958    175.032
A_3     C     0.5045     0.4454     0.7831    -21.5529
A_0     C     0.7238     0.2672     0.4894    -229.6032
A_1     C     0.5045     0.8462     0.8076    175.032
A_2     C     0.4825     0.6681     0.2692    78.021
A_0     C     0.2193     0.2227     0.7831    -229.6032
A_2     C     0.0     0.7126     0.5873    78.021
A_2     C     0.6361     0.1781     0.6363    78.021
A_0     C     0.965     0.8462     0.881    -229.6032
A_0     C     0.329     0.3563     0.7342    -229.6032
A_2     C     0.0     0.1781     0.7831    78.021
A_1     C     0.5045     0.1336     0.4405    175.032
A_2     C     0.6799     0.3563     0.8321    78.021
A_2     C     0.0     0.0891     0.416    78.021
A_1     C     0.6361     0.9798     0.4405    175.032
A_2     C     0.9431     0.8907     0.2202    78.021
A_3     C     0.1316     0.8907     0.6852    -21.5529
A_0     C     0.1535     0.4008     0.8565    -229.6032
A_2     C     0.8554     0.4454     0.9299    78.021
A_0     C     0.1097     0.2227     0.0245    -229.6032
A_1     C     0.8554     0.579     0.5384    175.032
A_1     C     0.5045     0.5344     0.3181    175.032
A_0     C     0.5483     0.7571     0.3671    -229.6032
A_2     C     0.3509     0.4454     0.2447    78.021
A_1     C     0.8773     0.4899     0.9055    175.032
A_1     C     0.987     0.4454     0.7831    175.032
A_1     C     0.1097     0.9353     0.881    175.032
A_0     C     0.3948     0.9798     0.1468    -229.6032
A_0     C     0.3729     0.7571     0.3181    -229.6032
A_1     C     0.7457     0.0445     0.2692    175.032
A_0     C     0.1097     0.4899     0.9789    -229.6032
A_2     C     0.0877     0.9798     0.5629    78.021
A_3     C     0.7896     0.8017     0.8076    -21.5529
A_2     C     0.7896     0.2227     0.0    78.021
A_0     C     0.5045     0.7126     0.9544    -229.6032
A_2     C     0.9212     0.6235     0.5384    78.021
A_2     C     0.0219     0.2227     0.2202    78.021
A_3     C     0.8554     0.1781     0.465    -21.5529
A_3     C     0.9431     0.0445     0.8321    -21.5529
A_3     C     0.658     0.3563     0.3426    -21.5529
A_2     C     0.2193     0.4454     0.1468    78.021
A_3     C     0.0439     0.8017     0.9789    -21.5529
A_3     C     0.5922     0.0891     0.465    -21.5529
A_0     C     0.5045     0.0     0.9789    -229.6032
A_2     C     0.7019     0.2672     0.3916    78.021
A_2     C     0.6361     0.8017     0.7831    78.021
A_1     C     0.329     0.0     0.7831    175.032
A_2     C     0.0     0.4899     0.4894    78.021
A_3     C     0.2193     0.0891     0.881    -21.5529
A_3     C     0.5483     0.8017     0.9789    -21.5529
A_0     C     0.5264     0.6681     0.2447    -229.6032
A_3     C     0.2413     0.6235     0.2447    -21.5529
A_1     C     0.4825     0.6235     0.6118    175.032
A_1     C     0.1316     0.3563     0.9544    175.032
A_2     C     0.0     0.0891     0.1958    78.021
A_3     C     0.1974     0.0445     0.3426    -21.5529
A_3     C     0.8773     0.4454     0.3671    -21.5529
A_1     C     0.5483     0.6235     0.9789    175.032
A_3     C     0.2851     0.8017     0.881    -21.5529
A_3     C     0.3948     0.2672     0.2937    -21.5529
A_3     C     0.0439     0.7571     0.9544    -21.5529
A_2     C     0.1535     0.4008     0.7586    78.021
A_3     C     0.5264     0.8462     0.7097    -21.5529
A_2     C     0.7457     0.2672     0.1958    78.021
A_3     C     0.1535     0.4899     0.2447    -21.5529
A_3     C     0.7676     0.1781     0.2447    -21.5529
A_1     C     0.2193     0.4454     0.5873    175.032
A_1     C     0.987     0.3563     0.7342    175.032
A_0     C     0.8773     0.9798     0.5384    -229.6032
A_2     C     0.7238     0.4899     0.1958    78.021
A_3     C     0.329     0.5344     0.9789    -21.5529
A_0     C     0.965     0.9798     0.0    -229.6032
A_1     C     0.4167     0.7571     0.0    175.032
A_2     C     0.8992     0.9353     0.6607    78.021
A_3     C     0.7019     0.7126     0.881    -21.5529
A_3     C     0.5703     0.4454     0.9544    -21.5529
A_0     C     0.7019     0.1336     0.7831    -229.6032
A_0     C     0.1755     0.6235     0.2202    -229.6032
A_2     C     0.2413     0.4008     0.7342    78.021
A_2     C     0.5264     0.0     0.6118    78.021
A_1     C     0.7238     0.3118     0.9789    175.032
A_0     C     0.4167     0.8017     0.5384    -229.6032
A_0     C     0.4606     0.0     0.5873    -229.6032
A_3     C     0.4825     0.0     0.6363    -21.5529
A_0     C     0.0219     0.9798     0.5384    -229.6032
A_2     C     0.8554     0.6681     0.5139    78.021
A_0     C     0.3071     0.7571     0.0734    -229.6032
A_1     C     0.1535     0.1336     0.9544    175.032
A_2     C     0.5264     0.2672     0.9544    78.021
A_0     C     0.8992     0.0445     0.9789    -229.6032
A_1     C     0.3948     0.4008     0.3426    175.032
A_2     C     0.4387     0.1781     0.3671    78.021
A_2     C     0.5264     0.8017     0.8321    78.021
A_2     C     0.7019     0.6681     0.4894    78.021
A_3     C     0.1974     0.9798     0.0245    -21.5529
A_3     C     0.1974     0.5344     0.9544    -21.5529
