material5

loop_
_symmetry_equiv_pos_as_xyz
  x,y,z
_cell_length_a          38.0771
_cell_length_b          27.3816
_cell_length_c          49.6793
_cell_angle_alpha       90.0000
_cell_angle_beta        90.0000
_cell_angle_gamma       90.0000
loop_
_atom_site_label
_atom_site_type_symbol
_atom_site_fract_x
_atom_site_fract_y
_atom_site_fract_z
_atom_site_charge
#NET CHARGE: -3.42836870004e-13
A_2     C     0.6828     0.7304     0.0805    12.53
A_1     C     0.5515     0.1826     0.7045    72.904
A_3     C     0.6828     0.073     0.6844    -60.8761
A_3     C     0.3677     0.9861     0.0201    -60.8761
A_3     C     0.6303     0.5113     0.9461    -60.8761
A_2     C     0.1313     0.84     0.8052    12.53
A_1     C     0.2364     0.9861     0.8052    72.904
A_1     C     0.604     0.3652     0.3221    72.904
A_2     C     0.6303     0.2191     0.8656    12.53
A_2     C     0.7616     0.7669     0.8656    12.53
A_3     C     0.7616     0.6209     0.0    -60.8761
A_0     C     0.0     0.8765     0.0604    -3.244
A_1     C     0.8667     0.6209     0.9662    72.904
A_3     C     0.7879     0.7304     0.3019    -60.8761
A_0     C     0.3152     0.1096     0.9058    -3.244
A_1     C     0.9455     0.4383     0.1208    72.904
A_2     C     0.5515     0.4383     0.6643    12.53
A_1     C     0.0525     0.2556     0.1409    72.904
A_2     C     0.499     0.4383     0.3221    12.53
A_2     C     0.7879     0.8035     0.1812    12.53
A_1     C     0.8141     0.5478     0.785    72.904
A_1     C     0.8929     0.6574     0.9662    72.904
A_0     C     0.1576     0.0     0.2818    -3.244
A_3     C     0.3939     0.5478     0.7246    -60.8761
A_0     C     0.604     0.7304     0.9058    -3.244
A_1     C     0.3414     0.5843     0.6441    72.904
A_3     C     0.9192     0.7304     0.7045    -60.8761
A_0     C     0.2101     0.3287     0.7649    -3.244
A_1     C     0.2364     0.8035     0.5636    72.904
A_0     C     0.604     0.5113     0.3623    -3.244
A_0     C     0.2889     0.0     0.624    -3.244
A_3     C     0.8404     0.84     0.2818    -60.8761
A_2     C     0.4465     0.1826     0.4831    12.53
A_2     C     0.7091     0.9861     0.5837    12.53
A_3     C     0.499     0.7669     0.3221    -60.8761
A_3     C     0.8929     0.9861     0.5032    -60.8761
A_1     C     0.998     0.2922     0.9662    72.904
A_3     C     0.2626     0.9861     0.0201    -60.8761
A_3     C     0.9717     0.8035     0.785    -60.8761
A_2     C     0.5515     0.84     0.785    12.53
A_2     C     0.3152     0.8765     0.4026    12.53
A_1     C     0.5778     0.5113     0.8656    72.904
A_3     C     0.7616     0.0365     0.3422    -60.8761
A_1     C     0.1838     0.3287     0.3825    72.904
A_3     C     0.3939     0.5843     0.8052    -60.8761
A_3     C     0.2364     0.9495     0.8253    -60.8761
A_0     C     0.7354     0.5843     0.3019    -3.244
A_0     C     0.1313     0.2556     0.7246    -3.244
A_3     C     0.6303     0.2191     0.9863    -60.8761
A_0     C     0.7354     0.2556     0.5234    -3.244
A_2     C     0.6828     0.5113     0.8052    12.53
A_3     C     0.3152     0.5478     0.7045    -60.8761
A_0     C     0.6566     0.2922     0.7649    -3.244
A_3     C     0.7616     0.913     0.5435    -60.8761
A_3     C     0.3677     0.0365     0.7448    -60.8761
A_3     C     0.4202     0.2556     0.6441    -60.8761
A_1     C     0.9717     0.0365     0.0805    72.904
A_0     C     0.9455     0.0     0.4831    -3.244
A_1     C     0.6303     0.0     0.5234    72.904
A_2     C     0.3939     0.1826     0.9662    12.53
