material0

loop_
_symmetry_equiv_pos_as_xyz
  x,y,z
_cell_length_a          46.363
_cell_length_b          26.5407
_cell_length_c          25.6238
_cell_angle_alpha       90.0000
_cell_angle_beta        90.0000
_cell_angle_gamma       90.0000
loop_
_atom_site_label
_atom_site_type_symbol
_atom_site_fract_x
_atom_site_fract_y
_atom_site_fract_z
_atom_site_charge
#NET CHARGE: -2.13162820728e-14
A_0     C     0.7333     0.0754     0.3512    -42.7335
A_0     C     0.2804     0.1507     0.2732    -42.7335
A_2     C     0.7118     0.3014     0.4683    39.3519
A_0     C     0.151     0.6028     0.7805    -42.7335
A_2     C     0.4961     0.0     0.5854    39.3519
A_3     C     0.8628     0.0     0.1561    20.475
A_2     C     0.302     0.3391     0.5464    39.3519
A_3     C     0.2804     0.3014     0.3903    20.475
A_3     C     0.0431     0.3014     0.2732    20.475
A_3     C     0.5177     0.2637     0.3512    20.475
A_2     C     0.949     0.6028     0.8586    39.3519
A_0     C     0.0431     0.4145     0.1171    -42.7335
A_0     C     0.2157     0.7912     0.8586    -42.7335
A_1     C     0.4098     0.8666     0.7805    0.0
A_1     C     0.2157     0.113     0.8976    0.0
A_0     C     0.302     0.0754     0.0    -42.7335
A_1     C     0.5177     0.113     0.9757    0.0
A_1     C     0.5608     0.6405     0.9757    0.0
A_3     C     0.4745     0.6028     0.1171    20.475
A_2     C     0.4745     0.5275     0.1171    39.3519
A_1     C     0.302     0.5652     0.3512    0.0
A_0     C     0.2373     0.8289     0.6634    -42.7335
