material3

loop_
_symmetry_equiv_pos_as_xyz
  x,y,z
_cell_length_a          28.7842
_cell_length_b          33.6009
_cell_length_c          23.101
_cell_angle_alpha       90.0000
_cell_angle_beta        90.0000
_cell_angle_gamma       90.0000
loop_
_atom_site_label
_atom_site_type_symbol
_atom_site_fract_x
_atom_site_fract_y
_atom_site_fract_z
_atom_site_charge
#NET CHARGE: 1.7763568394e-14
A_1     C     0.139     0.8928     0.2164    -6.6938
A_0     C     0.4516     0.3869     0.1732    -2.303
A_2     C     0.7643     0.4464     0.7792    40.1628
A_3     C     0.0695     0.0595     0.606    2.7636
A_3     C     0.9033     0.9226     0.0433    2.7636
A_1     C     0.938     0.1786     0.6493    -6.6938
A_1     C     0.5211     0.5952     0.6493    -6.6938
A_0     C     0.0     0.5059     0.1299    -2.303
A_1     C     0.0     0.5952     0.3463    -6.6938
A_1     C     0.2779     0.2083     0.9956    -6.6938
A_0     C     0.6948     0.6547     0.1299    -2.303
A_0     C     0.3127     0.5357     0.5627    -2.303
A_0     C     0.799     0.625     0.9956    -2.303
A_1     C     0.8338     0.8333     0.7359    -6.6938
A_3     C     0.9033     0.2083     0.0866    2.7636
A_1     C     0.9728     0.2976     0.1299    -6.6938
A_3     C     0.6948     0.5059     0.9956    2.7636
A_2     C     0.0347     0.1786     0.2597    40.1628
A_1     C     0.3474     0.625     0.8225    -6.6938
A_1     C     0.9033     0.119     0.3896    -6.6938
A_1     C     0.3822     0.8928     0.5195    -6.6938
A_0     C     0.4169     0.0893     0.7792    -2.303
A_1     C     0.7643     0.2976     0.9091    -6.6938
A_1     C     0.0695     0.5059     0.9523    -6.6938
A_3     C     0.0347     0.8631     0.6926    2.7636
