material0

BOUNDARIES
Number of particles: 105
x-coordinate: 20
y-coordinate: 20
z-coordinate: 20
Epsilon: 20
Sigma: 20
Charge: 20

loop_
_symmetry_equiv_pos_as_xyz
  x,y,z
_cell_length_a          20
_cell_length_b          20
_cell_length_c          20
_cell_angle_alpha       90.0000
_cell_angle_beta        90.0000
_cell_angle_gamma       90.0000
loop_
_atom_site_label
_atom_site_fract_x
_atom_site_fract_y
_atom_site_fract_z
_atom_site_charge
#NET CHARGE: 0.0
A0     1     14     10     0.190254203809
A1     0     11     1     0.816542179532
A2     1     0     13    -0.647937403807
A3     1     13     10    -0.888226920704
A4     3     18     15    -0.146092509639
A5     2     9     7    -0.151613728589
A6     3     11     12     0.808960035293
A7     2     7     9    -0.513195575175
A8     2     13     15     0.231945851819
A9     0     15     7     0.0361251508291
A10     0     10     11    -0.950615745482
A11     3     7     5     0.401880745739
A12     1     16     2    -0.271546870933
A13     0     16     15    -0.273397924975
A14     1     8     12     0.00588854094635
A15     1     6     3    -0.176631248411
A16     0     14     14    -0.434823961067
A17     1     17     4     0.906671431084
A18     2     4     0     0.314163710436
A19     3     3     14     0.114226723733
A20     3     9     9     0.541412942377
A21     1     1     5     0.627934753062
A22     0     10     11    -0.300559505039
A23     3     14     2    -0.611775294664
A24     3     1     12    -0.42098686145
A25     3     4     7    -0.490166837697
A26     1     2     15     0.247364094162
A27     0     18     11     0.770928397139
A28     3     17     9    -0.0823442265557
A29     0     3     3     0.824045040396
A30     0     7     14     0.894931062383
A31     3     8     13     0.362111894699
A32     2     4     13    -0.487976734804
A33     0     0     12    -0.26627220195
A34     2     4     8    -0.167466564295
A35     0     0     2    -0.411114066626
A36     0     1     0    -0.0247681438582
A37     2     18     14    -0.254376070801
A38     2     13     1     0.159620919557
A39     2     6     15     0.713740859234
A40     1     11     13     0.620262082119
A41     3     13     4    -0.576198330211
A42     1     17     0    -0.190152466882
A43     1     4     9     0.0231169717465
A44     3     5     3     0.0220420194663
A45     1     14     0     0.774254904959
A46     3     7     8     0.200712372219
A47     3     8     13    -0.0213409231621
A48     2     15     9    -0.249988152419
A49     2     17     1    -0.908425906568
A50     1     10     8    -0.265945210656
A51     3     17     5    -0.547604667572
A52     1     5     12     0.812875907775
A53     0     12     8    -0.914472677077
A54     2     11     3     0.47230696586
A55     3     9     7    -0.248303029304
